FoamFile
{
    version     2.0;
    format      ascii;
    class       polyBoundaryMesh;
    location    "constant/polyMesh";
    object      boundary;
}

4
(
	bldg
	{
		type    unAssigned;
		nFaces    13;
		startFace    2315;
	}

	ground
	{
		type    unAssigned;
		nFaces    120;
		startFace    2328;
	}

	box
	{
		type    unAssigned;
		nFaces    536;
		startFace    2448;
	}

	unAssigned
	{
		type    unAssigned;
		nFaces    23;
		startFace    2984;
	}

)
