FoamFile
{
    version     2.0;
    format      ascii;
    class       polyBoundaryMesh;
    location    "constant/polyMesh";
    object      boundary;
}

2
(
	OBJECT
	{
		type    unAssigned;
		nFaces    665;
		startFace    2398;
	}

	unAssigned
	{
		type    unAssigned;
		nFaces    20;
		startFace    3063;
	}

)
