FoamFile
{
    version     2.0;
    format      ascii;
    class       polyBoundaryMesh;
    location    "constant/polyMesh";
    object      boundary;
}

2
(
	OBJECT
	{
		type    unAssigned;
		nFaces    499;
		startFace    1562;
	}

	unAssigned
	{
		type    unAssigned;
		nFaces    27;
		startFace    2061;
	}

)
