FoamFile
{
    version     2.0;
    format      ascii;
    class       polyBoundaryMesh;
    location    "constant/polyMesh";
    object      boundary;
}

2
(
	OBJECT
	{
		type    unAssigned;
		nFaces    497;
		startFace    1562;
	}

	unAssigned
	{
		type    unAssigned;
		nFaces    29;
		startFace    2059;
	}

)
