FoamFile
{
    version     2.0;
    format      ascii;
    class       polyBoundaryMesh;
    location    "constant/polyMesh";
    object      boundary;
}

4
(
	bldg
	{
		type    unAssigned;
		nFaces    144;
		startFace    5070;
	}

	ground
	{
		type    unAssigned;
		nFaces    268;
		startFace    5214;
	}

	box
	{
		type    unAssigned;
		nFaces    572;
		startFace    5482;
	}

	unAssigned
	{
		type    unAssigned;
		nFaces    24;
		startFace    6054;
	}

)
