FoamFile
{
    version     2.0;
    format      ascii;
    class       polyBoundaryMesh;
    location    "constant/polyMesh";
    object      boundary;
}

4
(
	bldg
	{
		type    unAssigned;
		nFaces    36;
		startFace    2870;
	}

	ground
	{
		type    unAssigned;
		nFaces    159;
		startFace    2906;
	}

	box
	{
		type    unAssigned;
		nFaces    717;
		startFace    3065;
	}

	unAssigned
	{
		type    unAssigned;
		nFaces    248;
		startFace    3782;
	}

)
