FoamFile
{
    version     2.0;
    format      ascii;
    class       polyBoundaryMesh;
    location    "constant/polyMesh";
    object      boundary;
}

4
(
	bldg
	{
		type    unAssigned;
		nFaces    28;
		startFace    2292;
	}

	ground
	{
		type    unAssigned;
		nFaces    120;
		startFace    2320;
	}

	box
	{
		type    unAssigned;
		nFaces    536;
		startFace    2440;
	}

	unAssigned
	{
		type    unAssigned;
		nFaces    12;
		startFace    2976;
	}

)
