FoamFile
{
    version     2.0;
    format      ascii;
    class       polyBoundaryMesh;
    location    "constant/polyMesh";
    object      boundary;
}

2
(
	OBJECT
	{
		type    unAssigned;
		nFaces    322;
		startFace    138;
	}

	unAssigned
	{
		type    unAssigned;
		nFaces    0;
		startFace    460;
	}

)
