/*--------------------------------*- C++ -*----------------------------------*\
| =========                 |                                                 |
| \\      /  F ield         | OpenFOAM: The Open Source CFD Toolbox           |
|  \\    /   O peration     | Version:  v1706+                                |
|   \\  /    A nd           | Web:      www.OpenFOAM.org                      |
|    \\/     M anipulation  |                                                 |
\*---------------------------------------------------------------------------*/
/* Butterfly 0.0.4                https://github.com/ladybug-tools/butterfly *\
\*---------------------------------------------------------------------------*/
FoamFile
{
	version		4.0;
	format		ascii;
	class		dictionary;
	location	"system";
	object		controlDict;
}

//#include		"probes";

application		simpleFoam;

startFrom		latestTime;

startTime		0;

stopAt		endTime;

endTime		600;

deltaT		1;

writeControl		timeStep;

writeInterval		200;

purgeWrite		0;

writeFormat		ascii;

writePrecision		8;

writeCompression		off;

timeFormat		general;

timePrecision		6;

runTimeModifiable		true;

functions{}